1Y0L_lig_H_HAN_1_hfixed.pdb
     RDKit          3D

 19 20  0  0  0  0  0  0  0  0999 V2000
   -2.1075    0.5342   -2.8372 N   0  0  0  0  0  0  0  0  0  0  0  0
   -2.9218    0.5115   -1.7816 C   0  0  0  0  0  0  0  0  0  0  0  0
   -3.6129   -0.2529   -2.2186 N   0  0  0  0  0  0  0  0  0  0  0  0
   -3.5482   -1.3796   -4.3920 C   0  0  0  0  0  0  0  0  0  0  0  0
   -2.8126   -1.4538   -5.5432 C   0  0  0  0  0  0  0  0  0  0  0  0
   -1.7911   -0.9375   -5.8525 C   0  0  0  0  0  0  0  0  0  0  0  0
   -1.4377   -0.2332   -5.0245 C   0  0  0  0  0  0  0  0  0  0  0  0
   -3.0825   -0.5852   -3.5050 C   0  0  0  0  0  0  0  0  0  0  0  0
   -2.1767   -0.0999   -3.8078 C   0  0  0  0  0  0  0  0  0  0  0  0
   -3.4792   -2.4443   -6.6182 C   0  0  0  0  0  0  0  0  0  0  0  0
   -1.0764   -1.1130   -7.1158 C   0  0  0  0  0  0  0  0  0  0  0  0
   -3.1043    1.0521   -0.5865 N   0  0  0  0  0  0  0  0  0  0  0  0
   -1.3603    0.8537   -3.3246 C   0  0  0  0  0  0  0  0  0  0  0  0
   -1.5850    0.0473   -4.6474 C   0  0  0  0  0  0  0  0  0  0  0  0
   -1.3698   -0.5607   -5.6251 C   0  0  0  0  0  0  0  0  0  0  0  0
   -0.2983   -0.3628   -6.3738 C   0  0  0  0  0  0  0  0  0  0  0  0
   -0.3623   -0.9425   -7.8979 C   0  0  0  0  0  0  0  0  0  0  0  0
   -0.8043   -2.1000   -8.0905 O   0  0  0  0  0  0  0  0  0  0  0  0
    0.0193   -0.1878   -8.7573 O   0  0  0  0  0  0  0  0  0  0  0  0
  1  2  1  0
  1  9  1  0
  1 13  1  0
  2  3  2  0
  2 12  1  0
  3  8  1  0
  4  5  1  0
  4  8  2  0
  5  6  2  0
  5 10  1  0
  6  7  1  0
  6 11  1  0
  7  9  2  0
  8  9  1  0
 13 14  1  0
 14 15  1  0
 15 16  1  0
 16 17  1  0
 17 18  2  0
 17 19  1  0
M  END
$$$$
