1Y0L_lig_H_HAN_1_hfixed.pdb
     RDKit          3D

 19 20  0  0  0  0  0  0  0  0999 V2000
   19.5170   87.8010   41.9100 N   0  0  0  0  0  0  0  0  0  0  0  0
   20.9480   88.0010   42.0070 C   0  0  0  0  0  0  0  0  0  0  0  0
   21.5000   88.6390   41.0400 N   0  0  0  0  0  0  0  0  0  0  0  0
   20.5170   89.6430   38.8940 C   0  0  0  0  0  0  0  0  0  0  0  0
   19.3020   89.8230   38.1630 C   0  0  0  0  0  0  0  0  0  0  0  0
   18.0440   89.3080   38.7000 C   0  0  0  0  0  0  0  0  0  0  0  0
   18.0250   88.6240   39.9460 C   0  0  0  0  0  0  0  0  0  0  0  0
   20.4760   88.9440   40.1580 C   0  0  0  0  0  0  0  0  0  0  0  0
   19.2520   88.4450   40.6710 C   0  0  0  0  0  0  0  0  0  0  0  0
   19.4010   90.5710   36.8170 C   0  0  0  0  0  0  0  0  0  0  0  0
   16.6870   89.4570   37.9790 C   0  0  0  0  0  0  0  0  0  0  0  0
   21.7100   87.5220   43.0950 N   0  0  0  0  0  0  0  0  0  0  0  0
   18.5970   87.1100   42.8440 C   0  0  0  0  0  0  0  0  0  0  0  0
   17.9990   88.0270   43.9220 C   0  0  0  0  0  0  0  0  0  0  0  0
   18.3940   87.6030   45.3440 C   0  0  0  0  0  0  0  0  0  0  0  0
   17.7340   86.2770   45.7950 C   0  0  0  0  0  0  0  0  0  0  0  0
   16.8770   86.4180   47.0600 C   0  0  0  0  0  0  0  0  0  0  0  0
   15.7960   85.7900   47.1170 O   0  0  0  0  0  0  0  0  0  0  0  0
   17.2780   87.1510   48.0050 O   0  0  0  0  0  0  0  0  0  0  0  0
  1  2  1  0
  1  9  1  0
  1 13  1  0
  2  3  2  0
  2 12  1  0
  3  8  1  0
  4  5  1  0
  4  8  2  0
  5  6  2  0
  5 10  1  0
  6  7  1  0
  6 11  1  0
  7  9  2  0
  8  9  1  0
 13 14  1  0
 14 15  1  0
 15 16  1  0
 16 17  1  0
 17 18  2  0
 17 19  1  0
M  END
$$$$
