1Y0L_lig_H_HAN_1_hfixed.pdb
     RDKit          3D

 19 20  0  0  0  0  0  0  0  0999 V2000
    0.5418    0.5595   -1.8767 N   0  0  0  0  0  0  0  0  0  0  0  0
    1.1081   -0.0331   -1.7800 C   0  0  0  0  0  0  0  0  0  0  0  0
    0.9682    0.7257   -2.1610 N   0  0  0  0  0  0  0  0  0  0  0  0
   -0.1144    2.9499   -2.8120 C   0  0  0  0  0  0  0  0  0  0  0  0
   -1.2421    3.9607   -3.0445 C   0  0  0  0  0  0  0  0  0  0  0  0
   -1.5213    3.7978   -2.9149 C   0  0  0  0  0  0  0  0  0  0  0  0
   -1.0749    2.7821   -2.5405 C   0  0  0  0  0  0  0  0  0  0  0  0
    0.0371    1.8872   -2.3898 C   0  0  0  0  0  0  0  0  0  0  0  0
   -0.2165    1.8266   -2.2693 C   0  0  0  0  0  0  0  0  0  0  0  0
   -1.6620    5.3664   -3.6602 C   0  0  0  0  0  0  0  0  0  0  0  0
   -2.4546    4.7685   -3.2018 C   0  0  0  0  0  0  0  0  0  0  0  0
    1.8596   -1.2107   -1.3816 N   0  0  0  0  0  0  0  0  0  0  0  0
    0.6657    0.0458   -1.6150 C   0  0  0  0  0  0  0  0  0  0  0  0
    0.6650    0.5875   -1.8456 C   0  0  0  0  0  0  0  0  0  0  0  0
    0.0463    1.7012   -1.7982 C   0  0  0  0  0  0  0  0  0  0  0  0
   -0.8377    1.9844   -2.3949 C   0  0  0  0  0  0  0  0  0  0  0  0
   -1.0016    3.2541   -2.7841 C   0  0  0  0  0  0  0  0  0  0  0  0
   -1.9468    3.8032   -2.9201 O   0  0  0  0  0  0  0  0  0  0  0  0
    0.1214    3.9032   -2.9197 O   0  0  0  0  0  0  0  0  0  0  0  0
  1  2  1  0
  1  9  1  0
  1 13  1  0
  2  3  2  0
  2 12  1  0
  3  8  1  0
  4  5  1  0
  4  8  2  0
  5  6  2  0
  5 10  1  0
  6  7  1  0
  6 11  1  0
  7  9  2  0
  8  9  1  0
 13 14  1  0
 14 15  1  0
 15 16  1  0
 16 17  1  0
 17 18  2  0
 17 19  1  0
M  END
$$$$
