1Y0L_lig_H_HAN_1_hfixed.pdb
     RDKit          3D

 19 20  0  0  0  0  0  0  0  0999 V2000
   -4.0498   -1.2055   -0.3538 N   0  0  0  0  0  0  0  0  0  0  0  0
   -3.5173   -1.8903   -1.0487 C   0  0  0  0  0  0  0  0  0  0  0  0
   -3.3089   -0.9082   -1.6121 N   0  0  0  0  0  0  0  0  0  0  0  0
   -3.7273    1.6618   -1.4431 C   0  0  0  0  0  0  0  0  0  0  0  0
   -4.3342    2.6751   -0.6050 C   0  0  0  0  0  0  0  0  0  0  0  0
   -4.7632    2.4572    0.1152 C   0  0  0  0  0  0  0  0  0  0  0  0
   -4.7755    1.2273    0.3622 C   0  0  0  0  0  0  0  0  0  0  0  0
   -3.8003    0.3159   -1.0336 C   0  0  0  0  0  0  0  0  0  0  0  0
   -4.2401    0.1758   -0.2932 C   0  0  0  0  0  0  0  0  0  0  0  0
   -4.2709    4.1482   -0.9361 C   0  0  0  0  0  0  0  0  0  0  0  0
   -5.3865    3.5332    0.8402 C   0  0  0  0  0  0  0  0  0  0  0  0
   -3.1841   -3.2922   -1.3287 N   0  0  0  0  0  0  0  0  0  0  0  0
   -4.3015   -1.5251    0.0653 C   0  0  0  0  0  0  0  0  0  0  0  0
   -4.0708   -0.5486   -0.9850 C   0  0  0  0  0  0  0  0  0  0  0  0
   -3.5569    0.5003   -0.2866 C   0  0  0  0  0  0  0  0  0  0  0  0
   -4.5273    1.3446   -0.5482 C   0  0  0  0  0  0  0  0  0  0  0  0
   -4.5504    2.5132    0.1150 C   0  0  0  0  0  0  0  0  0  0  0  0
   -4.7230    2.5673    1.2769 O   0  0  0  0  0  0  0  0  0  0  0  0
   -4.3823    3.4562   -0.6714 O   0  0  0  0  0  0  0  0  0  0  0  0
  1  2  1  0
  1  9  1  0
  1 13  1  0
  2  3  2  0
  2 12  1  0
  3  8  1  0
  4  5  1  0
  4  8  2  0
  5  6  2  0
  5 10  1  0
  6  7  1  0
  6 11  1  0
  7  9  2  0
  8  9  1  0
 13 14  1  0
 14 15  1  0
 15 16  1  0
 16 17  1  0
 17 18  2  0
 17 19  1  0
M  END
$$$$
