1Y0L_lig_H_HAN_1_hfixed.pdb
     RDKit          3D

 19 20  0  0  0  0  0  0  0  0999 V2000
   -1.8819   -0.4189   -0.2925 N   0  0  0  0  0  0  0  0  0  0  0  0
   -2.6370   -0.5496    0.1089 C   0  0  0  0  0  0  0  0  0  0  0  0
   -1.9701   -0.4696    0.1464 N   0  0  0  0  0  0  0  0  0  0  0  0
    0.7151   -0.0681   -0.4695 C   0  0  0  0  0  0  0  0  0  0  0  0
    1.8844    0.0853   -1.0460 C   0  0  0  0  0  0  0  0  0  0  0  0
    1.7348    0.0461   -1.2375 C   0  0  0  0  0  0  0  0  0  0  0  0
    0.6218   -0.0911   -1.0659 C   0  0  0  0  0  0  0  0  0  0  0  0
   -0.5433   -0.2396   -0.3906 C   0  0  0  0  0  0  0  0  0  0  0  0
   -0.5606   -0.2409   -0.5930 C   0  0  0  0  0  0  0  0  0  0  0  0
    3.3583    0.2628   -1.1256 C   0  0  0  0  0  0  0  0  0  0  0  0
    3.0299    0.1302   -1.7711 C   0  0  0  0  0  0  0  0  0  0  0  0
   -3.9895   -0.7974    0.5090 N   0  0  0  0  0  0  0  0  0  0  0  0
   -2.6018   -0.4572   -0.4707 C   0  0  0  0  0  0  0  0  0  0  0  0
   -3.5795   -0.8319    0.1281 C   0  0  0  0  0  0  0  0  0  0  0  0
   -4.5728   -0.4490    0.4075 C   0  0  0  0  0  0  0  0  0  0  0  0
   -5.2527   -0.8041    1.2511 C   0  0  0  0  0  0  0  0  0  0  0  0
   -6.6703   -0.9452    1.0195 C   0  0  0  0  0  0  0  0  0  0  0  0
   -7.0348   -0.9201   -0.2968 O   0  0  0  0  0  0  0  0  0  0  0  0
   -7.6602   -1.0561    1.5930 O   0  0  0  0  0  0  0  0  0  0  0  0
  1  2  1  0
  1  9  1  0
  1 13  1  0
  2  3  2  0
  2 12  1  0
  3  8  1  0
  4  5  1  0
  4  8  2  0
  5  6  2  0
  5 10  1  0
  6  7  1  0
  6 11  1  0
  7  9  2  0
  8  9  1  0
 13 14  1  0
 14 15  1  0
 15 16  1  0
 16 17  1  0
 17 18  2  0
 17 19  1  0
M  END
$$$$
