1Y0L_lig_H_HAN_1_hfixed.pdb
     RDKit          3D

 19 20  0  0  0  0  0  0  0  0999 V2000
   -2.0776   -4.1996    1.2551 N   0  0  0  0  0  0  0  0  0  0  0  0
   -2.3165   -4.0889    0.0356 C   0  0  0  0  0  0  0  0  0  0  0  0
   -3.5886   -3.9615    0.1578 N   0  0  0  0  0  0  0  0  0  0  0  0
   -5.2986   -3.9617    2.0355 C   0  0  0  0  0  0  0  0  0  0  0  0
   -5.4204   -4.1198    3.4491 C   0  0  0  0  0  0  0  0  0  0  0  0
   -4.5175   -4.3222    4.1669 C   0  0  0  0  0  0  0  0  0  0  0  0
   -3.3107   -4.3745    3.6284 C   0  0  0  0  0  0  0  0  0  0  0  0
   -4.0235   -4.0387    1.5350 C   0  0  0  0  0  0  0  0  0  0  0  0
   -3.1552   -4.1935    2.2091 C   0  0  0  0  0  0  0  0  0  0  0  0
   -6.8780   -4.0349    4.0292 C   0  0  0  0  0  0  0  0  0  0  0  0
   -4.7319   -4.5384    5.6235 C   0  0  0  0  0  0  0  0  0  0  0  0
   -1.5120   -4.0929   -1.1549 N   0  0  0  0  0  0  0  0  0  0  0  0
   -1.1093   -4.3144    1.6611 C   0  0  0  0  0  0  0  0  0  0  0  0
   -1.5937   -4.9691    2.3112 C   0  0  0  0  0  0  0  0  0  0  0  0
   -2.8874   -4.8085    2.8289 C   0  0  0  0  0  0  0  0  0  0  0  0
   -3.0023   -3.6810    3.7582 C   0  0  0  0  0  0  0  0  0  0  0  0
   -4.1906   -4.1308    4.6587 C   0  0  0  0  0  0  0  0  0  0  0  0
   -3.8983   -4.4991    5.7835 O   0  0  0  0  0  0  0  0  0  0  0  0
   -5.2828   -4.2037    4.1267 O   0  0  0  0  0  0  0  0  0  0  0  0
  1  2  1  0
  1  9  1  0
  1 13  1  0
  2  3  2  0
  2 12  1  0
  3  8  1  0
  4  5  1  0
  4  8  2  0
  5  6  2  0
  5 10  1  0
  6  7  1  0
  6 11  1  0
  7  9  2  0
  8  9  1  0
 13 14  1  0
 14 15  1  0
 15 16  1  0
 16 17  1  0
 17 18  2  0
 17 19  1  0
M  END
$$$$
